/*--------------------------------*- C++ -*----------------------------------*\
  =========                 |
  \\      /  F ield         | OpenFOAM: The Open Source CFD Toolbox
   \\    /   O peration     | Website:  https://openfoam.org
    \\  /    A nd           | Version:  6
     \\/     M anipulation  |
\*---------------------------------------------------------------------------*/
FoamFile
{
    version     2.0;
    format      ascii;
    class       extendedFeatureEdgeMesh;
    location    "constant/extendedFeatureEdgeMesh";
    object      buildings.extendedFeatureEdgeMesh;
}
// * * * * * * * * * * * * * * * * * * * * * * * * * * * * * * * * * * * * * //

// points

542
(
(31.2653 26.6075 1.8623)
(32.8827 26.2108 4.8623)
(31.2653 26.6075 4.8623)
(32.8827 26.2108 1.8623)
(34.2102 31.601 4.8623)
(34.2102 31.601 1.8623)
(32.5928 31.9977 1.8623)
(61.2793 137.543 1.869)
(61.5387 132.29 7.66)
(61.2793 137.543 7.66)
(61.5387 132.29 1.869)
(65.033 130.543 7.66)
(65.033 130.543 1.869)
(90.0269 134.041 7.66)
(90.0269 134.041 1.869)
(62.5305 144.791 1.869)
(224.564 189.445 2.7531)
(227.707 189.945 5.7531)
(224.564 189.445 5.7531)
(227.707 189.945 2.7531)
(227.371 192.02 5.7531)
(227.371 192.02 2.7531)
(224.243 191.521 5.7531)
(12.2833 30.5595 1.8715)
(12.6953 27.3056 1.8715)
(12.6953 27.3056 5.51)
(19.6075 28.1029 1.8715)
(19.3024 31.3454 5.51)
(19.6075 28.1029 5.51)
(19.3024 31.3454 1.8715)
(155.777 35.8391 1.4407)
(156.586 40.6418 4.4407)
(155.777 35.8391 4.4407)
(156.586 40.6418 1.4407)
(151.855 41.4276 1.4407)
(151.062 36.6249 1.4407)
(151.062 36.6249 4.4407)
(106.033 193.291 1.7147)
(103.79 191.54 1.7147)
(103.79 191.54 4.7147)
(51.5289 118.542 1.3868)
(50.5371 125.542 7.61)
(51.5289 118.542 7.61)
(50.5371 125.542 1.3868)
(27.2827 122.292 1.3868)
(28.0304 115.543 1.3868)
(28.0304 115.543 7.61)
(153.915 188.663 1.3613)
(146.698 209.785 1.3613)
(146.698 209.785 8.46)
(12.4054 26.2909 1.9106)
(11.9781 30.674 4.9106)
(12.4054 26.2909 4.9106)
(11.9781 30.674 1.9106)
(14.2822 58.7921 2.1413)
(14.0381 55.0423 2.1413)
(14.0381 55.0423 7.65)
(108.612 101.402 1.1519)
(114.273 60.9322 9.44)
(108.612 101.402 9.44)
(114.273 60.9322 1.1519)
(118.24 102.745 1.1519)
(115.54 202.293 1.4734)
(117.279 190.54 1.4734)
(117.279 190.54 9.54)
(193.039 210.293 2.7581)
(193.039 210.293 9.95)
(195.786 234.791 2.7581)
(195.786 234.791 9.95)
(192.032 233.04 2.7581)
(192.032 233.04 9.95)
(138.641 61.5883 4.1105)
(138.916 59.0744 1.1105)
(66.04 216.541 1.6767)
(64.5294 223.793 1.6767)
(64.5294 223.793 13.58)
(157.043 42.3927 1.3954)
(157.852 47.1992 4.3954)
(157.043 42.3927 4.3954)
(153.107 47.9813 1.3954)
(152.313 43.1786 4.3954)
(153.107 47.9813 4.3954)
(152.313 43.1786 1.3954)
(129.807 192.444 1.4)
(134.064 164.032 6.32)
(129.807 192.444 6.32)
(114.304 55.5992 1.1662)
(113.983 58.0292 4.1662)
(114.304 55.5992 4.1662)
(62.5305 101.04 1.2135)
(63.0341 97.0421 7.44)
(62.5305 101.04 7.44)
(63.0341 97.0421 1.2135)
(67.5354 97.5418 7.44)
(67.5354 97.5418 1.2135)
(67.0319 101.54 7.44)
(67.0319 101.54 1.2135)
(89.7827 147.293 1.701)
(91.7816 134.541 1.701)
(91.7816 134.541 14.18)
(110.779 137.291 1.701)
(110.779 137.291 14.18)
(151.062 17.4255 1.4786)
(152.054 22.0833 4.4786)
(151.062 17.4255 4.4786)
(152.054 22.0833 1.4786)
(147.476 23.0484 1.4786)
(146.484 18.3945 4.4786)
(147.476 23.0484 4.4786)
(146.484 18.3945 1.4786)
(220.337 211.533 2.7063)
(224.884 211.971 2.7063)
(224.884 211.971 5.7063)
(131.531 144.413 1.9317)
(132.126 140.743 5.6)
(131.531 144.413 5.6)
(132.126 140.743 1.9317)
(137.436 141.605 5.6)
(137.436 141.605 1.9317)
(136.841 145.271 5.6)
(136.841 145.271 1.9317)
(143.539 18.898 1.63)
(143.921 20.6985 1.63)
(143.921 20.6985 4.63)
(142.578 20.9808 1.63)
(142.212 19.1765 1.63)
(142.212 19.1765 4.63)
(142.365 21.2975 1.63)
(143.951 20.9579 1.63)
(143.951 20.9579 4.63)
(144.455 23.3154 4.63)
(144.455 23.3154 1.63)
(142.868 23.6511 1.63)
(142.365 21.2975 4.63)
(142.868 23.6511 4.63)
(146.194 49.8581 1.44)
(143.89 37.8342 1.44)
(143.89 37.8342 7.82)
(146.317 18.589 1.587)
(147.202 22.7852 4.587)
(146.317 18.589 4.587)
(145.325 23.1781 1.587)
(144.44 18.9857 4.587)
(145.325 23.1781 4.587)
(144.44 18.9857 1.587)
(139.542 153.793 1.4383)
(141.281 141.792 1.4383)
(141.281 141.792 7.21)
(164.291 144.291 7.21)
(164.291 144.291 1.4383)
(170.532 145.29 7.21)
(170.532 145.29 1.4383)
(169.785 149.792 7.21)
(169.785 149.792 1.4383)
(134.735 25.959 1.63)
(133.636 20.7634 1.63)
(133.636 20.7634 5.17)
(202.377 159.855 2.2997)
(203.094 154.785 2.2997)
(203.094 154.785 9.35)
(211.304 155.952 2.2997)
(211.304 155.952 9.35)
(203.064 163.2 2.2997)
(202.377 159.855 9.35)
(215.363 190.693 2.8)
(215.775 188.145 5.8)
(215.363 190.693 5.8)
(215.775 188.145 2.8)
(224.518 189.533 5.8)
(224.518 189.533 2.8)
(224.091 192.085 5.8)
(224.091 192.085 2.8)
(40.2527 23.88 10.52)
(32.5928 31.9977 4.8623)
(220.505 210.396 2.6944)
(221.298 204.853 5.6944)
(220.505 210.396 5.6944)
(221.298 204.853 2.6944)
(227.341 205.734 5.6944)
(227.341 205.734 2.6944)
(226.547 211.273 5.6944)
(226.547 211.273 2.6944)
(199.036 153.042 2.7059)
(202.53 130.791 9.56)
(199.036 153.042 9.56)
(202.53 130.791 2.7059)
(215.53 132.79 9.56)
(215.53 132.79 2.7059)
(212.036 155.041 9.56)
(212.036 155.041 2.7059)
(88.028 148.293 7.66)
(88.028 148.293 1.869)
(62.5305 144.791 7.66)
(12.2833 30.5595 5.51)
(205.032 186.291 2.58)
(206.787 174.541 7.69)
(205.032 186.291 7.69)
(206.787 174.541 2.58)
(250.031 180.79 7.69)
(250.031 180.79 2.58)
(248.291 192.543 7.69)
(248.291 192.543 2.58)
(114.532 227.043 1.915)
(115.28 219.292 8.16)
(114.532 227.043 8.16)
(115.28 219.292 1.915)
(129.532 220.791 8.16)
(129.532 220.791 1.915)
(128.784 228.291 8.16)
(128.784 228.291 1.915)
(151.855 41.4276 4.4407)
(104.538 190.54 4.7147)
(104.538 190.54 1.7147)
(107.04 192.291 4.7147)
(107.04 192.291 1.7147)
(106.033 193.291 4.7147)
(27.2827 122.292 7.61)
(252.38 170.513 2.5954)
(253.952 158.634 6.19)
(252.38 170.513 6.19)
(253.952 158.634 2.5954)
(261.032 159.58 6.19)
(261.032 159.58 2.5954)
(259.445 171.455 6.19)
(259.445 171.455 2.5954)
(159.973 230.293 2.3423)
(160.66 226.585 5.3423)
(159.973 230.293 5.3423)
(160.66 226.585 2.3423)
(162.949 227.001 5.3423)
(162.949 227.001 2.3423)
(162.292 230.713 5.3423)
(162.292 230.713 2.3423)
(137.299 208.443 1.3613)
(140.411 186.733 8.46)
(137.299 208.443 8.46)
(140.411 186.733 1.3613)
(153.915 188.663 8.46)
(156.036 192.944 8.46)
(156.036 192.944 1.3613)
(155.426 197.132 8.46)
(155.426 197.132 1.3613)
(151.062 208.675 8.46)
(151.062 208.675 1.3613)
(6.22559 23.3078 1.9106)
(8.28552 23.0446 4.9106)
(6.22559 23.3078 4.9106)
(8.28552 23.0446 1.9106)
(7.59888 30.0941 4.9106)
(7.59888 30.0941 1.9106)
(22.0337 54.0428 7.65)
(22.0337 54.0428 2.1413)
(22.2778 57.7927 7.65)
(22.2778 57.7927 2.1413)
(14.2822 58.7921 7.65)
(123.871 62.2711 9.44)
(123.871 62.2711 1.1519)
(118.24 102.745 9.44)
(137.054 193.546 1.4734)
(135.284 205.04 9.54)
(137.054 193.546 9.54)
(135.284 205.04 1.4734)
(115.54 202.293 9.54)
(235.657 153.347 2.8239)
(236.145 150.116 6.34)
(235.657 153.347 6.34)
(236.145 150.116 2.8239)
(242.645 151.085 6.34)
(242.645 151.085 2.8239)
(242.157 154.312 6.34)
(242.157 154.312 2.8239)
(193.787 206.043 9.95)
(193.787 206.043 2.7581)
(197.54 199.291 9.95)
(197.54 199.291 2.7581)
(212.28 201.542 9.95)
(212.28 201.542 2.7581)
(207.291 234.543 9.95)
(207.291 234.543 2.7581)
(200.027 235.291 9.95)
(200.027 235.291 2.7581)
(138.641 61.5883 1.1105)
(134.903 61.1877 4.1105)
(134.903 61.1877 1.1105)
(135.178 58.67 4.1105)
(135.178 58.67 1.1105)
(138.916 59.0744 4.1105)
(57.5409 222.542 1.6767)
(58.7769 215.29 13.58)
(57.5409 222.542 13.58)
(58.7769 215.29 1.6767)
(66.04 216.541 13.58)
(157.852 47.1992 1.3954)
(134.064 164.032 1.4)
(149.78 166.29 6.32)
(149.78 166.29 1.4)
(147.278 183.54 6.32)
(147.278 183.54 1.4)
(137.054 193.546 6.32)
(137.054 193.546 1.4)
(108.261 57.2929 1.1662)
(108.582 54.8668 4.1662)
(108.261 57.2929 4.1662)
(108.582 54.8668 1.1662)
(113.983 58.0292 1.1662)
(175.034 150.543 1.5209)
(178.284 125.042 6.16)
(175.034 150.543 6.16)
(178.284 125.042 1.5209)
(185.287 126.041 6.16)
(185.287 126.041 1.5209)
(183.533 138.29 6.16)
(183.533 138.29 1.5209)
(181.534 149.04 6.16)
(181.534 149.04 1.5209)
(180.038 151.043 6.16)
(180.038 151.043 1.5209)
(26.6876 41.7137 14.72)
(26.6876 41.7137 1.1547)
(61.8439 47.2908 14.72)
(61.8439 47.2908 1.1547)
(58.0292 73.2918 14.72)
(58.0292 73.2918 1.1547)
(22.7814 68.2907 14.72)
(22.7814 68.2907 1.1547)
(53.0396 108.543 14.31)
(53.0396 108.543 1.0653)
(171.539 124.29 14.31)
(171.539 124.29 1.0653)
(174.789 128.792 14.31)
(174.789 128.792 1.0653)
(172.791 142.792 14.31)
(172.791 142.792 1.0653)
(50.5371 125.542 14.31)
(50.5371 125.542 1.0653)
(103.027 35.4881 1.4724)
(107.3 34.5802 4.59)
(103.027 35.4881 4.59)
(107.3 34.5802 1.4724)
(108.246 39.0663 4.59)
(108.246 39.0663 1.4724)
(103.989 39.9704 4.59)
(103.989 39.9704 1.4724)
(108.612 101.402 1.1711)
(57.9987 94.3336 38.69)
(108.612 101.402 38.69)
(57.9987 94.3336 1.1711)
(63.6597 53.8673 38.69)
(63.6597 53.8673 1.1711)
(114.273 60.9322 38.69)
(114.273 60.9322 1.1711)
(89.7827 147.293 14.18)
(109.283 150.04 14.18)
(109.283 150.04 1.701)
(219.94 215.58 2.7063)
(220.337 211.533 5.7063)
(219.94 215.58 5.7063)
(224.487 216.019 5.7063)
(224.487 216.019 2.7063)
(223.19 165.821 2.61)
(225.403 152.138 10.99)
(223.19 165.821 10.99)
(225.403 152.138 2.61)
(244.263 154.751 10.99)
(244.263 154.751 2.61)
(242.096 168.587 10.99)
(242.096 168.587 2.61)
(107.086 19.5236 1.4512)
(130.508 14.9307 9.36)
(107.086 19.5236 9.36)
(130.508 14.9307 1.4512)
(140.625 28.904 9.36)
(140.625 28.904 1.4512)
(143.356 42.8619 9.36)
(143.356 42.8619 1.4512)
(123.779 46.6957 9.36)
(123.779 46.6957 1.4512)
(112.045 44.9066 9.36)
(112.045 44.9066 1.4512)
(154.785 209.293 1.3003)
(158.783 180.79 9.72)
(154.785 209.293 9.72)
(158.783 180.79 1.3003)
(177.277 183.292 9.72)
(177.277 183.292 1.3003)
(173.279 211.792 9.72)
(173.279 211.792 1.3003)
(54.7638 101.49 1.2418)
(55.4657 97.0612 4.2418)
(54.7638 101.49 4.2418)
(55.4657 97.0612 1.2418)
(57.6935 97.4159 4.2418)
(57.6935 97.4159 1.2418)
(56.9916 101.841 4.2418)
(56.9916 101.841 1.2418)
(38.0402 136.04 2.048)
(39.032 128.292 5.88)
(38.0402 136.04 5.88)
(39.032 128.292 2.048)
(48.5382 129.791 5.88)
(48.5382 129.791 2.048)
(47.5311 137.543 5.88)
(47.5311 137.543 2.048)
(143.539 18.898 4.63)
(142.578 20.9808 4.63)
(150.116 36.644 7.82)
(150.116 36.644 1.44)
(152.374 48.5649 7.82)
(152.374 48.5649 1.44)
(146.194 49.8581 7.82)
(215.286 140.293 2.587)
(216.537 132.29 8.34)
(215.286 140.293 8.34)
(216.537 132.29 2.587)
(228.287 134.041 8.34)
(228.287 134.041 2.587)
(227.036 142.04 8.34)
(227.036 142.04 2.587)
(147.202 22.7852 1.587)
(139.542 153.793 7.21)
(162.277 157.291 7.21)
(162.277 157.291 1.4383)
(220.978 204.247 2.7234)
(221.68 199.234 5.7234)
(220.978 204.247 5.7234)
(221.68 199.234 2.7234)
(227.386 200.035 5.7234)
(227.386 200.035 2.7234)
(226.685 205.04 5.7234)
(226.685 205.04 2.7234)
(141.327 19.1307 5.17)
(141.327 19.1307 1.63)
(142.441 24.3263 5.17)
(142.441 24.3263 1.63)
(134.735 25.959 5.17)
(203.461 197.655 2.8281)
(204.01 194.424 5.8281)
(203.461 197.655 5.8281)
(204.01 194.424 2.8281)
(209.991 195.412 5.8281)
(209.991 195.412 2.8281)
(209.457 198.643 5.8281)
(209.457 198.643 2.8281)
(199.203 180.202 2.5323)
(200.18 174.873 5.9)
(199.203 180.202 5.9)
(200.18 174.873 2.5323)
(204.834 175.732 5.9)
(204.834 175.732 2.5323)
(203.857 181.053 5.9)
(203.857 181.053 2.5323)
(210.129 164.215 9.35)
(210.129 164.215 2.2997)
(203.064 163.2 9.35)
(129.807 192.444 1.433)
(129.807 192.444 9.43)
(111.038 189.541 9.43)
(111.038 189.541 1.433)
(115.036 161.293 9.43)
(115.036 161.293 1.433)
(134.064 164.032 9.43)
(134.064 164.032 1.433)
(24.5667 2.05231 1.9455)
(49.057 -4.0741 10.52)
(24.5667 2.05231 10.52)
(49.057 -4.0741 1.9455)
(54.6722 18.4517 10.52)
(54.6722 18.4517 1.9455)
(51.8951 20.7024 10.52)
(51.8951 20.7024 1.9455)
(46.9818 21.9307 10.52)
(46.9818 21.9307 1.9455)
(40.2527 23.88 1.9455)
(34.3018 25.3754 10.52)
(34.3018 25.3754 1.9455)
(30.2887 24.9062 10.52)
(30.2887 24.9062 1.9455)
(224.243 191.521 2.7531)
(64.5294 132.542 7.66)
(64.5294 132.542 1.869)
(63.2782 138.042 1.869)
(63.2782 138.042 7.66)
(153.351 192.562 1.3613)
(153.351 192.562 8.46)
(146.927 208.084 1.3613)
(195.786 210.793 2.7581)
(195.786 233.543 9.95)
(195.786 233.543 2.7581)
(164.032 145.042 7.21)
(164.032 145.042 1.4383)
(163.528 148.792 7.21)
(163.528 148.792 1.4383)
(203.537 160.023 2.2997)
(203.537 160.023 9.35)
(39.856 22.3236 1.9455)
(39.856 22.3236 10.52)
(152.786 196.751 8.46)
(152.786 196.751 1.3613)
(146.927 208.084 8.46)
(8.81958 25.9628 4.9106)
(8.81958 25.9628 1.9106)
(195.786 210.793 9.95)
(196.289 206.291 9.95)
(196.289 206.291 2.7581)
(200.287 233.791 9.95)
(200.287 233.791 2.7581)
(138.779 182.293 6.32)
(138.779 182.293 1.4)
(182.785 138.29 6.16)
(182.785 138.29 1.5209)
(180.283 149.04 6.16)
(180.283 149.04 1.5209)
(171.28 128.04 14.31)
(171.28 128.04 1.0653)
(133.499 30.2925 9.36)
(133.499 30.2925 1.4512)
(123.016 42.7628 9.36)
(123.016 42.7628 1.4512)
(51.5137 19.2451 10.52)
(51.5137 19.2451 1.9455)
(46.6614 20.6108 10.52)
(46.6614 20.6108 1.9455)
(33.9355 23.983 10.52)
(33.9355 23.983 1.9455)
(138.84 59.7343 4.1105)
(138.84 59.7343 1.1105)
(129.807 192.444 9.54)
(129.807 192.444 1.4734)
(135.071 59.7343 4.1105)
(135.071 59.7343 1.1105)
(24.0479 59.7343 14.72)
(24.0479 59.7343 1.1547)
(60.0128 59.7343 14.72)
(60.0128 59.7343 1.1547)
(51.5289 118.542 14.31)
(51.5289 118.542 1.0653)
(62.8357 59.7343 38.69)
(62.8357 59.7343 1.1711)
(105.698 59.7343 38.69)
(105.698 59.7343 1.1711)
(117.279 190.54 9.43)
(117.279 190.54 1.433)
)

// edges

804
(
(2 0)
(1 2)
(3 1)
(0 3)
(4 1)
(5 4)
(3 5)
(6 0)
(8 9)
(9 7)
(10 8)
(7 10)
(478 8)
(10 479)
(11 478)
(12 11)
(479 12)
(13 11)
(14 13)
(12 14)
(15 480)
(9 481)
(17 18)
(18 16)
(19 17)
(16 19)
(20 17)
(21 20)
(19 21)
(22 20)
(24 25)
(23 24)
(28 26)
(27 28)
(29 27)
(26 29)
(32 30)
(31 32)
(33 31)
(30 33)
(35 36)
(34 35)
(38 39)
(37 38)
(42 40)
(41 42)
(43 41)
(40 43)
(45 46)
(44 45)
(47 482)
(48 49)
(484 48)
(52 50)
(51 52)
(53 51)
(50 53)
(55 56)
(54 55)
(59 57)
(58 59)
(60 58)
(57 60)
(61 57)
(63 64)
(62 63)
(65 66)
(485 65)
(68 67)
(486 68)
(67 487)
(69 70)
(487 69)
(71 524)
(72 525)
(74 75)
(73 74)
(78 76)
(77 78)
(81 79)
(80 81)
(82 80)
(79 82)
(85 83)
(84 85)
(88 86)
(87 88)
(90 91)
(91 89)
(92 90)
(89 92)
(93 90)
(94 93)
(92 94)
(95 93)
(96 95)
(94 96)
(91 95)
(98 99)
(97 98)
(100 101)
(98 100)
(104 102)
(103 104)
(105 103)
(102 105)
(108 106)
(107 108)
(109 107)
(106 109)
(111 112)
(110 111)
(115 113)
(114 115)
(116 114)
(113 116)
(117 114)
(118 117)
(116 118)
(119 117)
(120 119)
(118 120)
(115 119)
(120 113)
(122 123)
(121 122)
(125 126)
(124 125)
(128 129)
(127 128)
(130 129)
(131 130)
(128 131)
(134 132)
(133 134)
(127 133)
(132 127)
(136 137)
(135 136)
(140 138)
(139 140)
(143 141)
(142 143)
(144 142)
(141 144)
(146 147)
(145 146)
(488 147)
(146 489)
(148 488)
(149 148)
(489 149)
(150 148)
(151 150)
(149 151)
(152 150)
(153 152)
(151 153)
(490 152)
(153 491)
(155 156)
(154 155)
(158 159)
(157 158)
(160 161)
(158 160)
(162 492)
(157 163)
(492 157)
(166 164)
(165 166)
(167 165)
(164 167)
(168 165)
(169 168)
(167 169)
(170 168)
(171 170)
(169 171)
(171 164)
(172 495)
(173 4)
(6 173)
(5 6)
(2 173)
(176 174)
(175 176)
(177 175)
(174 177)
(178 175)
(179 178)
(177 179)
(180 178)
(181 180)
(179 181)
(176 180)
(181 174)
(184 182)
(183 184)
(185 183)
(182 185)
(186 183)
(187 186)
(185 187)
(188 186)
(189 188)
(187 189)
(184 188)
(189 182)
(190 13)
(191 190)
(14 191)
(192 190)
(15 192)
(191 15)
(481 192)
(193 23)
(25 193)
(28 25)
(24 26)
(193 27)
(29 23)
(196 194)
(195 196)
(197 195)
(194 197)
(198 195)
(199 198)
(197 199)
(200 198)
(201 200)
(199 201)
(196 200)
(201 194)
(204 202)
(203 204)
(205 203)
(202 205)
(206 203)
(207 206)
(205 207)
(208 206)
(209 208)
(207 209)
(204 208)
(209 202)
(32 36)
(35 30)
(210 31)
(34 210)
(33 34)
(36 210)
(211 39)
(212 211)
(38 212)
(213 211)
(214 213)
(212 214)
(215 213)
(37 215)
(214 37)
(39 215)
(216 41)
(44 216)
(43 44)
(46 216)
(42 46)
(45 40)
(219 217)
(218 219)
(220 218)
(217 220)
(221 218)
(222 221)
(220 222)
(223 221)
(224 223)
(222 224)
(219 223)
(224 217)
(227 225)
(226 227)
(228 226)
(225 228)
(229 226)
(230 229)
(228 230)
(231 229)
(232 231)
(230 232)
(227 231)
(232 225)
(235 233)
(234 235)
(236 234)
(233 236)
(237 234)
(47 237)
(236 47)
(483 237)
(238 483)
(239 238)
(482 239)
(240 238)
(241 240)
(239 241)
(496 240)
(241 497)
(242 496)
(243 242)
(497 243)
(498 242)
(243 484)
(49 498)
(235 49)
(48 233)
(246 244)
(245 246)
(247 245)
(244 247)
(499 245)
(247 500)
(52 499)
(500 50)
(248 51)
(249 248)
(53 249)
(246 248)
(249 244)
(250 56)
(251 250)
(55 251)
(252 250)
(253 252)
(251 253)
(254 252)
(54 254)
(253 54)
(56 254)
(255 58)
(256 255)
(60 256)
(257 255)
(61 257)
(256 61)
(59 257)
(260 258)
(259 260)
(261 259)
(258 261)
(262 259)
(62 262)
(261 62)
(64 262)
(526 64)
(63 527)
(260 526)
(527 258)
(265 263)
(264 265)
(266 264)
(263 266)
(267 264)
(268 267)
(266 268)
(269 267)
(270 269)
(268 270)
(265 269)
(270 263)
(501 70)
(69 485)
(66 501)
(271 66)
(272 271)
(65 272)
(502 271)
(272 503)
(273 502)
(274 273)
(503 274)
(275 273)
(276 275)
(274 276)
(277 275)
(278 277)
(276 278)
(504 277)
(278 505)
(279 504)
(280 279)
(505 280)
(68 279)
(280 67)
(70 486)
(281 71)
(525 281)
(282 71)
(283 282)
(281 283)
(528 282)
(283 529)
(284 528)
(285 284)
(529 285)
(286 284)
(72 286)
(285 72)
(524 286)
(289 287)
(288 289)
(290 288)
(287 290)
(291 288)
(73 291)
(290 73)
(75 291)
(289 75)
(74 287)
(78 80)
(82 76)
(292 77)
(76 292)
(81 77)
(292 79)
(84 293)
(294 84)
(295 294)
(293 295)
(296 294)
(297 296)
(295 297)
(506 296)
(297 507)
(298 506)
(299 298)
(507 299)
(85 298)
(299 83)
(83 293)
(302 300)
(301 302)
(303 301)
(300 303)
(88 301)
(303 86)
(304 87)
(86 304)
(302 87)
(304 300)
(307 305)
(306 307)
(308 306)
(305 308)
(309 306)
(310 309)
(308 310)
(311 309)
(312 311)
(310 312)
(508 311)
(312 509)
(313 508)
(314 313)
(509 314)
(510 313)
(314 511)
(315 510)
(316 315)
(511 316)
(307 315)
(316 305)
(317 530)
(318 317)
(531 318)
(319 317)
(320 319)
(318 320)
(532 319)
(320 533)
(321 532)
(322 321)
(533 322)
(323 321)
(324 323)
(322 324)
(530 323)
(324 531)
(325 534)
(326 325)
(535 326)
(327 325)
(328 327)
(326 328)
(512 327)
(328 513)
(329 512)
(330 329)
(513 330)
(331 329)
(332 331)
(330 332)
(333 331)
(334 333)
(332 334)
(534 333)
(334 535)
(337 335)
(336 337)
(338 336)
(335 338)
(339 336)
(340 339)
(338 340)
(341 339)
(342 341)
(340 342)
(337 341)
(342 335)
(345 343)
(344 345)
(346 344)
(343 346)
(536 344)
(346 537)
(347 536)
(348 347)
(537 348)
(538 347)
(348 539)
(349 538)
(350 349)
(539 350)
(345 349)
(350 343)
(351 97)
(99 351)
(101 99)
(352 101)
(353 352)
(100 353)
(351 352)
(353 97)
(104 107)
(109 102)
(108 103)
(105 106)
(356 354)
(355 356)
(110 355)
(354 110)
(112 355)
(357 112)
(358 357)
(111 358)
(356 357)
(358 354)
(361 359)
(360 361)
(362 360)
(359 362)
(363 360)
(364 363)
(362 364)
(365 363)
(366 365)
(364 366)
(361 365)
(366 359)
(369 367)
(368 369)
(370 368)
(367 370)
(514 368)
(370 515)
(371 514)
(372 371)
(515 372)
(373 371)
(374 373)
(372 374)
(375 373)
(376 375)
(374 376)
(516 375)
(376 517)
(377 516)
(378 377)
(517 378)
(369 377)
(378 367)
(381 379)
(380 381)
(382 380)
(379 382)
(383 380)
(384 383)
(382 384)
(385 383)
(386 385)
(384 386)
(381 385)
(386 379)
(389 387)
(388 389)
(390 388)
(387 390)
(391 388)
(392 391)
(390 392)
(393 391)
(394 393)
(392 394)
(389 393)
(394 387)
(397 395)
(396 397)
(398 396)
(395 398)
(399 396)
(400 399)
(398 400)
(401 399)
(402 401)
(400 402)
(397 401)
(402 395)
(403 126)
(121 403)
(125 121)
(123 403)
(404 123)
(124 404)
(122 124)
(126 404)
(129 133)
(134 130)
(131 132)
(405 137)
(406 405)
(136 406)
(407 405)
(408 407)
(406 408)
(409 407)
(135 409)
(408 135)
(137 409)
(412 410)
(411 412)
(413 411)
(410 413)
(414 411)
(415 414)
(413 415)
(416 414)
(417 416)
(415 417)
(412 416)
(417 410)
(140 142)
(144 138)
(418 139)
(138 418)
(143 139)
(418 141)
(419 145)
(147 419)
(420 490)
(421 420)
(491 421)
(419 420)
(421 145)
(424 422)
(423 424)
(425 423)
(422 425)
(426 423)
(427 426)
(425 427)
(428 426)
(429 428)
(427 429)
(424 428)
(429 422)
(430 156)
(431 430)
(155 431)
(432 430)
(433 432)
(431 433)
(434 432)
(154 434)
(433 154)
(156 434)
(437 435)
(436 437)
(438 436)
(435 438)
(439 436)
(440 439)
(438 440)
(441 439)
(442 441)
(440 442)
(437 441)
(442 435)
(445 443)
(444 445)
(446 444)
(443 446)
(447 444)
(448 447)
(446 448)
(449 447)
(450 449)
(448 450)
(445 449)
(450 443)
(159 163)
(161 159)
(451 161)
(452 451)
(160 452)
(453 451)
(162 453)
(452 162)
(493 453)
(163 493)
(455 454)
(540 455)
(454 541)
(456 540)
(457 456)
(541 457)
(458 456)
(459 458)
(457 459)
(460 458)
(461 460)
(459 461)
(455 460)
(461 454)
(166 170)
(464 462)
(463 464)
(465 463)
(462 465)
(466 463)
(467 466)
(465 467)
(518 466)
(467 519)
(468 518)
(469 468)
(519 469)
(470 468)
(471 470)
(469 471)
(520 470)
(471 521)
(495 520)
(521 494)
(472 172)
(494 472)
(473 172)
(474 473)
(472 474)
(522 473)
(474 523)
(475 522)
(476 475)
(523 476)
(464 475)
(476 462)
(7 480)
(16 477)
(477 21)
(89 96)
(22 18)
(22 477)
(479 478)
(480 481)
(482 483)
(487 486)
(489 488)
(491 490)
(492 493)
(495 494)
(497 496)
(484 498)
(500 499)
(485 501)
(503 502)
(505 504)
(507 506)
(509 508)
(511 510)
(513 512)
(515 514)
(517 516)
(519 518)
(521 520)
(523 522)
)

// concaveStart mixedStart nonFeatureStart
478 478 524
// internalStart flatStart openStart multipleStart
781 804 804 804
// normals

848
(
(-0.23821 -0.971214 0)
(-0.970986 0.239135 0)
(-0 0 1)
(-0.23821 -0.971214 0)
(0.970986 -0.239135 0)
(0 0 -1)
(0 -0 1)
(0.970986 -0.239135 0)
(0.23821 0.971214 -0)
(0 0 -1)
(-0.998783 -0.049321 0)
(0 0 1)
(-0.242208 0.970224 0)
(-0.998783 -0.049321 0)
(0.0839683 -0.996468 0)
(0 0 -1)
(0.0839683 -0.996468 0)
(-0.969702 -0.244289 0)
(0 -0 1)
(-0.969702 -0.244289 0)
(0.138603 -0.990348 0)
(0 0 -1)
(0.138603 -0.990348 0)
(0.990307 0.138895 -0)
(-0.993919 -0.110113 0)
(0 0 -1)
(-0.242208 0.970224 0)
(0 0 1)
(0.157108 -0.987581 0)
(0 0 1)
(-0.988256 -0.152809 0)
(0.157108 -0.987581 0)
(0.987142 0.159845 -0)
(0 0 -1)
(-0 0 1)
(0.987142 0.159845 0)
(-0.157537 0.987513 0)
(0 0 -1)
(-0.992079 -0.125614 0)
(0.114587 -0.993413 0)
(0 0 -1)
(0.995602 0.0936801 -0)
(0.114587 -0.993413 0)
(-0 0 1)
(0.995602 0.0936801 0)
(-0.111271 0.99379 0)
(0 0 -1)
(0.986108 -0.166108 0)
(-0.164393 -0.986395 0)
(-0 0 1)
(0.986108 -0.166108 0)
(0.163851 0.986485 -0)
(0 0 -1)
(-0.986641 0.16291 0)
(-0.164393 -0.986395 0)
(0 0 -1)
(-0.615353 0.788252 0)
(-0.800768 -0.598975 0)
(0 0 -1)
(0.990111 0.140284 -0)
(0.126598 -0.991954 0)
(0 0 1)
(0.990111 0.140284 0)
(-0.138413 0.990375 0)
(0 0 -1)
(-0.993919 -0.110113 0)
(0.126598 -0.991954 0)
(-0 0 -1)
(0.989699 0.143161 0)
(0 -0 -1)
(0.991059 0.133425 0)
(-0.141349 0.98996 0)
(0 0 -1)
(0.995282 0.0970282 -0)
(0.0911187 -0.99584 0)
(0 0 1)
(0.995282 0.0970282 0)
(-0.131275 0.991346 0)
(-0 0 -1)
(-0.997888 0.0649593 0)
(-0.124041 -0.992277 0)
(0 0 -1)
(-0.990358 -0.138533 0)
(-0.138152 0.990411 0)
(-0 0 1)
(-0.990358 -0.138533 0)
(0.13816 -0.99041 0)
(0 0 -1)
(-0.98923 -0.146368 0)
(0.150255 -0.988647 0)
(0 0 -1)
(-0.179075 0.983835 0)
(-0.984863 -0.173336 0)
(0 0 -1)
(-1 0 0)
(-0.117086 0.993122 0)
(0 0 1)
(-1 0 0)
(-0 0 -1)
(-0.132805 0.991142 0)
(-0.98606 -0.16639 0)
(0 0 -1)
(0.994289 0.106717 -0)
(0 0 1)
(0.993433 0.114419 0)
(0 -0 -1)
(0.978987 0.203924 0)
(-0.176206 0.984353 0)
(0 -0 -1)
(0.986129 -0.16598 0)
(-0.163905 -0.986476 0)
(0 -0 1)
(-0.986608 0.163108 0)
(0.162632 0.986687 0)
(-0 0 1)
(-0.986608 0.163108 0)
(-0.163905 -0.986476 0)
(0 0 -1)
(-0.988961 -0.148177 0)
(-0.150336 0.988635 0)
(0 0 1)
(0.991388 0.130961 -0)
(0.126962 -0.991908 0)
(-0 0 1)
(-0.992159 -0.124979 0)
(-0 0 1)
(-0.110398 0.993888 0)
(-0.992159 -0.124979 0)
(0.110335 -0.993894 0)
(0 0 -1)
(0 0 1)
(0.110335 -0.993894 0)
(0.992164 0.124945 -0)
(0 -0 -1)
(0.992164 0.124945 0)
(-0.110398 0.993888 0)
(-0.987936 -0.154861 0)
(0.143263 -0.989685 0)
(0 0 -1)
(0.143263 -0.989685 0)
(0.993186 0.116543 -0)
(0.978064 -0.208305 0)
(-0.207076 -0.978325 0)
(0 -0 1)
(0.978064 -0.208305 0)
(0.206279 0.978493 -0)
(0 0 -1)
(-0.978028 0.208472 0)
(0.206279 0.978493 0)
(-0 0 1)
(-0.978028 0.208472 0)
(-0.207076 -0.978325 0)
(0 0 -1)
(0.0958809 -0.995393 0)
(0.995225 0.0976055 -0)
(0 0 -1)
(-0.987111 -0.160036 0)
(-0.159513 0.987196 0)
(-0 0 1)
(-0.987111 -0.160036 0)
(0.160238 -0.987078 0)
(0 0 -1)
(0 0 1)
(0.160238 -0.987078 0)
(0.987084 0.160206 -0)
(0 -0 -1)
(0.987084 0.160206 0)
(-0.159513 0.987196 0)
(0.978225 -0.207546 0)
(0.205706 0.978614 -0)
(0 0 -1)
(-0.98004 0.198798 0)
(-0.205397 -0.978679 0)
(0 0 -1)
(-0.209379 -0.977835 0)
(0.977903 -0.209061 0)
(0 0 -1)
(0 -0 1)
(0.977903 -0.209061 0)
(0.206952 0.978351 -0)
(0 0 -1)
(-0.977917 0.208992 0)
(0.206952 0.978351 0)
(-0 0 1)
(-0.977917 0.208992 0)
(-0.209379 -0.977835 0)
(-0.982132 0.188195 0)
(-0.187766 -0.982214 0)
(0 0 -1)
(0.978475 -0.206364 0)
(-0.20678 -0.978387 0)
(0 -0 1)
(-0.978437 0.206543 0)
(0.204883 0.978786 0)
(-0 0 1)
(-0.978437 0.206543 0)
(-0.20678 -0.978387 0)
(0 0 -1)
(-0.989664 -0.143407 0)
(0.141415 -0.98995 0)
(-0 0 -1)
(0 0 1)
(0.141415 -0.98995 0)
(0 -0 -1)
(-0.94536 -0.32603 0)
(0 -0 1)
(-0.94536 -0.32603 0)
(0.158057 -0.98743 0)
(0 0 -1)
(0.158057 -0.98743 0)
(0.986512 0.163686 -0)
(0 0 1)
(0.986512 0.163686 0)
(-0.157818 0.987468 0)
(0 -0 -1)
(0 -0 1)
(-0.157818 0.987468 0)
(0 0 -1)
(-0.978352 0.206946 0)
(-0.20766 -0.978201 0)
(0 0 -1)
(-0.990148 -0.140026 0)
(0.140728 -0.990048 0)
(0 0 -1)
(0.140728 -0.990048 0)
(0.99004 0.140784 -0)
(0 0 -1)
(-0.989098 -0.147262 0)
(0 0 -1)
(-0.143331 0.989675 0)
(-0.990148 -0.140026 0)
(-0.987179 -0.159618 0)
(-0.157498 0.987519 0)
(-0 0 1)
(-0.987179 -0.159618 0)
(0.156792 -0.987632 0)
(0 0 -1)
(0 0 1)
(0.156792 -0.987632 0)
(0.986289 0.165026 -0)
(0 -0 -1)
(0.986289 0.165026 0)
(-0.157498 0.987519 0)
(0.969019 -0.246988 0)
(0 0 1)
(0.23821 0.971214 0)
(-0.970986 0.239135 0)
(-0.989921 -0.141621 0)
(-0.143645 0.989629 0)
(-0 0 1)
(-0.989921 -0.141621 0)
(0.144263 -0.989539 0)
(0 0 -1)
(0 0 1)
(0.144263 -0.989539 0)
(0.989881 0.141898 -0)
(0 -0 -1)
(0.989881 0.141898 0)
(-0.143645 0.989629 0)
(-0.987895 -0.155126 0)
(-0.151982 0.988383 0)
(-0 0 1)
(-0.987895 -0.155126 0)
(0.151982 -0.988383 0)
(0 0 -1)
(0 0 1)
(0.151982 -0.988383 0)
(0.987895 0.155126 -0)
(0 -0 -1)
(0.987895 0.155126 0)
(-0.151982 0.988383 0)
(0 0 1)
(0.990307 0.138895 0)
(-0.136069 0.990699 0)
(0 0 -1)
(0 -0 1)
(-0.136069 0.990699 0)
(-0.993919 -0.110113 0)
(-0.992079 -0.125614 0)
(-0.111271 0.99379 0)
(0 0 1)
(-0.989029 -0.147723 0)
(-0.143039 0.989717 0)
(-0 0 1)
(-0.989029 -0.147723 0)
(0.14302 -0.98972 0)
(0 0 -1)
(0 0 1)
(0.14302 -0.98972 0)
(0.989218 0.146451 -0)
(0 -0 -1)
(0.989218 0.146451 0)
(-0.143039 0.989717 0)
(-0.995376 -0.0960577 0)
(-0.0872329 0.996188 0)
(-0 0 1)
(-0.995376 -0.0960577 0)
(0.104601 -0.994514 0)
(0 0 -1)
(0 0 1)
(0.104601 -0.994514 0)
(0.995063 0.0992411 -0)
(0 -0 -1)
(0.995063 0.0992411 0)
(-0.0872329 0.996188 0)
(0 0 1)
(0.163851 0.986485 0)
(-0.986641 0.16291 0)
(-0 0 1)
(-0.800768 -0.598975 0)
(0.573376 -0.819292 0)
(0 0 1)
(0.573376 -0.819292 0)
(0.704635 0.70957 -0)
(0 -0 -1)
(0.704635 0.70957 0)
(-0.615353 0.788252 0)
(-0.138413 0.990375 0)
(-0.993919 -0.110113 0)
(0 0 1)
(-0.991357 -0.13119 0)
(-0.132164 0.991228 0)
(0 0 1)
(-0.991357 -0.13119 0)
(0.132438 -0.991191 0)
(0 0 -1)
(0.132438 -0.991191 0)
(0.991188 0.132465 -0)
(-0 0 1)
(0.991188 0.132465 0)
(-0.132164 0.991228 0)
(0 0 -1)
(-0.983266 -0.182174 0)
(-0.178213 0.983992 0)
(-0 0 1)
(-0.983266 -0.182174 0)
(0.17881 -0.983884 0)
(0 0 -1)
(0 0 1)
(0.17881 -0.983884 0)
(0.984695 0.174285 -0)
(0 -0 -1)
(0.984695 0.174285 0)
(-0.178213 0.983992 0)
(-0.989882 -0.141894 0)
(-0.141349 0.98996 0)
(0 0 1)
(-0.989882 -0.141894 0)
(0.141482 -0.989941 0)
(-0 0 -1)
(0 0 1)
(0.141482 -0.989941 0)
(0.989699 0.143161 -0)
(0.140855 -0.99003 0)
(0 0 1)
(0.140855 -0.99003 0)
(0.989558 0.144133 -0)
(0 0 -1)
(0 0 1)
(0.989558 0.144133 0)
(-0.142837 0.989746 0)
(0 -0 -1)
(-0.142837 0.989746 0)
(0.989709 0.143094 -0)
(0 0 1)
(0.989709 0.143094 0)
(-0.141489 0.98994 0)
(0 -0 -1)
(-0.141489 0.98994 0)
(0.991059 0.133425 -0)
(0 0 1)
(-0.126741 -0.991936 0)
(-0.980133 0.198342 0)
(-0 0 1)
(-0.126741 -0.991936 0)
(0.983663 -0.18002 0)
(0 0 -1)
(0.983663 -0.18002 0)
(0.0911187 -0.99584 0)
(0 0 1)
(-0.131275 0.991346 0)
(-0.980133 0.198342 0)
(0 0 -1)
(0 0 1)
(-0 0 -1)
(-0 0 1)
(-0.124041 -0.992277 0)
(0.997888 -0.0649572 0)
(0 0 -1)
(0.997888 -0.0649572 0)
(0.124028 0.992279 -0)
(0 0 1)
(0.124028 0.992279 0)
(-0.997888 0.0649593 0)
(0 0 1)
(0.13816 -0.99041 0)
(0.99046 0.1378 -0)
(0 -0 -1)
(0.99046 0.1378 0)
(-0.138152 0.990411 0)
(0.98835 0.1522 -0)
(0.150336 -0.988635 0)
(0 0 1)
(0.98835 0.1522 0)
(-0.137803 0.99046 0)
(0 -0 -1)
(-0 0 1)
(-0.137803 0.99046 0)
(-0.98923 -0.146368 0)
(0 0 -1)
(0 -0 1)
(0.150255 -0.988647 0)
(0.150336 -0.988635 0)
(-0.988785 -0.149345 0)
(-0.146851 0.989159 0)
(0 0 1)
(-0.988785 -0.149345 0)
(0.147449 -0.98907 0)
(0 0 -1)
(0.147449 -0.98907 0)
(0.988758 0.149526 -0)
(-0 0 1)
(0.988758 0.149526 0)
(-0.146851 0.989159 0)
(0 0 -1)
(0 0 1)
(-0.98606 -0.16639 0)
(-0.179075 0.983835 0)
(0 -0 1)
(-0.984863 -0.173336 0)
(0.0986378 -0.995123 0)
(0 0 1)
(0.0986378 -0.995123 0)
(0 0 -1)
(-0.984403 -0.175926 0)
(0 -0 1)
(-0.984403 -0.175926 0)
(0.150964 -0.988539 0)
(-0 0 -1)
(0.150964 -0.988539 0)
(0.988765 0.149479 -0)
(0 0 1)
(0.988765 0.149479 0)
(-0.106754 0.994286 0)
(0 0 -1)
(0 0 1)
(-0.106754 0.994286 0)
(0 -0 -1)
(0.985307 0.170793 -0)
(0 0 1)
(0.985307 0.170793 0)
(-0.117086 0.993122 0)
(0 -0 -1)
(-0.132805 0.991142 0)
(0.994289 0.106717 0)
(-0.106559 0.994306 0)
(0 -0 -1)
(0 -0 1)
(-0.106559 0.994306 0)
(-0.993386 -0.114826 0)
(0 0 -1)
(-0.993386 -0.114826 0)
(-0.994985 -0.100026 0)
(0 -0 1)
(-0.994985 -0.100026 0)
(0.107559 -0.994199 0)
(0 0 -1)
(0 0 1)
(0.107559 -0.994199 0)
(0.993433 0.114419 -0)
(-0.985785 -0.168013 0)
(-0.176206 0.984353 0)
(-0 0 1)
(-0.985785 -0.168013 0)
(0.169742 -0.985489 0)