/*--------------------------------*- C++ -*----------------------------------*\
  =========                 |
  \\      /  F ield         | OpenFOAM: The Open Source CFD Toolbox
   \\    /   O peration     | Website:  https://openfoam.org
    \\  /    A nd           | Version:  6
     \\/     M anipulation  |
\*---------------------------------------------------------------------------*/
FoamFile
{
    version     2.0;
    format      ascii;
    class       polyBoundaryMesh;
    location    "constant/polyMesh";
    object      boundary;
}
// * * * * * * * * * * * * * * * * * * * * * * * * * * * * * * * * * * * * * //

5
(
    inlet
    {
        type            patch;
        nFaces          200;
        startFace       689333;
    }
    outlet
    {
        type            patch;
        nFaces          200;
        startFace       689533;
    }
    ground
    {
        type            wall;
        inGroups        1(wall);
        nFaces          10478;
        startFace       689733;
    }
    frontAndBack
    {
        type            symmetry;
        inGroups        1(symmetry);
        nFaces          5176;
        startFace       700211;
    }
    buildings
    {
        type            wall;
        inGroups        1(wall);
        nFaces          26441;
        startFace       705387;
    }
)

// ************************************************************************* //
